
OS:Version,
  {0116cc78-0716-4f49-be24-08f39e2ae496}, !- Handle
  0.10.4;                                 !- Version Identifier

OS:Building,
  {08678ddd-175a-469b-9626-2f02c40b6916}, ! Handle
  Medium Office,                          ! Name
  ,                                       ! Building Type
  -0,                                     ! North Axis
  ,                                       ! Nominal Floor to Floor Height
  {f4de87b0-5d1b-454c-9fc8-3f5a824ee533}, ! Space Type Name
  {8d276ca2-ac82-489c-8e07-395b89456514}, ! Default Construction Set Name
  ;                                       ! Default Schedule Set Name

OS:Construction,
  {a4707411-1a3e-43c1-b1c3-26a5dadf04f2}, ! Handle
  000_ExtSlabCarpet_4in_ClimateZone 1-8,  ! Name
  {3ac3ab6e-838a-4987-a923-7ed16f076f1c}, ! Surface Rendering Name
  {8984dd43-df62-4d44-ae87-bc2bd2873b0e}, ! Layer 1
  {cf43fad8-0e82-4f83-ae04-66d40df51c35}; ! Layer 2

OS:Construction,
  {b09a8a1c-d2ef-47c1-87d1-ebed9781986c}, ! Handle
  000_Exterior Door,                      ! Name
  {336262c3-ed6f-4bd5-bd5b-d932449932e2}, ! Surface Rendering Name
  {ab2b6805-18a2-4e07-a2cb-4572d04f6890}, ! Layer 1
  {fe097386-a229-4196-90e2-4a422c321f26}; ! Layer 2

OS:Construction,
  {bf7a6673-5c75-47b0-9fb8-67dd3c74f3df}, ! Handle
  000_Exterior Window,                    ! Name
  {5258d57d-6d17-494e-9c3b-4c56919ea2f6}, ! Surface Rendering Name
  {f1c02e84-56ed-458b-88f2-c04a48b49010}, ! Layer 1
  {e206938a-22d6-40d6-a854-d669000ee30e}, ! Layer 2
  {f1c02e84-56ed-458b-88f2-c04a48b49010}; ! Layer 3

OS:Construction,
  {c9ec5036-78a9-455e-b264-b2a62182a6b1}, ! Handle
  000_Interior Ceiling,                   ! Name
  {d215b2b0-0241-4ad0-b07c-0df46d01f486}, ! Surface Rendering Name
  {f5ff5b8a-abba-4c43-b424-7ce4541deb2e}, ! Layer 1
  {7046c4c7-d903-44e8-85a6-633f6dfd0880}, ! Layer 2
  {364c7d39-64f6-45c6-a3b5-715541cdf78c}; ! Layer 3

OS:Construction,
  {0450d37d-52f1-4423-96c9-b8c2cad4782f}, ! Handle
  000_Interior Door,                      ! Name
  {10b662a5-17eb-4067-8ab6-1c6c92619ced}, ! Surface Rendering Name
  {2d8c20fd-e8a4-44df-b399-58414f1b82da}; ! Layer 1

