
OS:Version,
  {465d886f-c92d-4c56-89e1-298d79a20656}, ! Handle
  0.9.3;                                  ! Version Identifier

OS:Construction,
  {e5464ef3-b2b0-4d25-a41d-c04f233cb3af}, ! Handle
  Title 24-2008 Nonres 7 Skylight without Curb, ! Name
  ,                                       ! Surface Rendering Name
  {63acde3c-82c4-4463-a421-d7ddc02c1652}; ! Layer 1

OS:WindowMaterial:Glazing,
  {63acde3c-82c4-4463-a421-d7ddc02c1652}, ! Handle
  Theoretical Glass [681],                ! Name
  SpectralAverage,                        ! Optical Data Type
  ,                                       ! Window Glass Spectral Data Set Name
  0.003,                                  ! Thickness {m}
  0.390498,                               ! Solar Transmittance at Normal Incidence
  0.559502,                               ! Front Side Solar Reflectance at Normal Incidence
  0.559502,                               ! Back Side Solar Reflectance at Normal Incidence
  0.400004,                               ! Visible Transmittance at Normal Incidence
  0.549996,                               ! Front Side Visible Reflectance at Normal Incidence
  0.549996,                               ! Back Side Visible Reflectance at Normal Incidence
  0,                                      ! Infrared Transmittance at Normal Incidence
  0.9,                                    ! Front Side Infrared Hemispherical Emissivity
  0.9,                                    ! Back Side Infrared Hemispherical Emissivity
  0.0498596;                              ! Conductivity {W/m-K}

OS:ComponentCost:LineItem,
  {db76e08a-f63a-44c2-bd5f-ce7a97d688ac}, ! Handle
  Title 24-2008 Nonres 7 Skylight without Curb, ! Name
  ,                                       ! Type
  Construction,                           ! Line Item Type
  Title 24-2008 Nonres 7 Skylight without Curb, ! Item Name
  ,                                       ! Object End Use Key
  ,                                       ! Quantity {dimensionless}
  511.59,                                 ! Material Cost {$}
  CostPerArea;                            ! Material Cost Units

